data_image0
_cell_length_a       8.17343
_cell_length_b       27.4982
_cell_length_c       8.96056
_cell_angle_alpha    90
_cell_angle_beta     89.9999
_cell_angle_gamma    90

_symmetry_space_group_name_H-M    "P 1"
_symmetry_int_tables_number       1

loop_
  _symmetry_equiv_pos_as_xyz
  'x, y, z'

loop_
  _atom_site_label
  _atom_site_occupancy
  _atom_site_fract_x
  _atom_site_fract_y
  _atom_site_fract_z
  _atom_site_thermal_displace_type
  _atom_site_B_iso_or_equiv
  _atom_site_type_symbol
  N1       1.0000 0.56951  0.41782  0.60101  Biso   1.000  N
  H1       1.0000 0.56238  0.45511  0.61231  Biso   1.000  H
  H2       1.0000 0.54653  0.40376  0.70797  Biso   1.000  H
  H3       1.0000 0.68956  0.40889  0.57128  Biso   1.000  H
  C1       1.0000 0.44568  0.39952  0.48962  Biso   1.000  C
  H4       1.0000 0.45283  0.42365  0.39248  Biso   1.000  H
  H5       1.0000 0.32493  0.40385  0.54138  Biso   1.000  H
  C2       1.0000 0.47892  0.34763  0.44697  Biso   1.000  C
  C3       1.0000 0.40757  0.30925  0.52645  Biso   1.000  C
  H6       1.0000 0.32636  0.31712  0.62001  Biso   1.000  H
  C4       1.0000 0.43703  0.26112  0.48445  Biso   1.000  C
  H7       1.0000 0.37947  0.23141  0.54522  Biso   1.000  H
  C5       1.0000 0.53851  0.25124  0.36307  Biso   1.000  C
  H8       1.0000 0.55880  0.21364  0.32936  Biso   1.000  H
  C6       1.0000 0.61173  0.28932  0.28439  Biso   1.000  C
  H9       1.0000 0.69051  0.28168  0.18934  Biso   1.000  H
  C7       1.0000 0.58215  0.33734  0.32607  Biso   1.000  C
  H10      1.0000 0.63743  0.36705  0.26313  Biso   1.000  H
