data_image0
_cell_length_a       11.488
_cell_length_b       11.488
_cell_length_c       17.3714
_cell_angle_alpha    74.7912
_cell_angle_beta     80.7811
_cell_angle_gamma    90.0997

_symmetry_space_group_name_H-M    "P 1"
_symmetry_int_tables_number       1

loop_
  _symmetry_equiv_pos_as_xyz
  'x, y, z'

loop_
  _atom_site_label
  _atom_site_occupancy
  _atom_site_fract_x
  _atom_site_fract_y
  _atom_site_fract_z
  _atom_site_thermal_displace_type
  _atom_site_B_iso_or_equiv
  _atom_site_type_symbol
  C1       1.0000 0.52379  0.58542  0.31080  Biso   1.000  C
  H1       1.0000 0.49477  0.67464  0.31532  Biso   1.000  H
  H2       1.0000 0.45796  0.51705  0.34983  Biso   1.000  H
  N1       1.0000 0.63575  0.56503  0.34554  Biso   1.000  N
  H3       1.0000 0.69660  0.63790  0.32110  Biso   1.000  H
  H4       1.0000 0.67565  0.48640  0.33756  Biso   1.000  H
  H5       1.0000 0.61702  0.55749  0.40702  Biso   1.000  H
  C2       1.0000 0.53997  0.57496  0.22412  Biso   1.000  C
  H6       1.0000 0.55974  0.48145  0.22392  Biso   1.000  H
  H7       1.0000 0.45311  0.59068  0.20530  Biso   1.000  H
  C3       1.0000 0.63321  0.66200  0.16623  Biso   1.000  C
  C4       1.0000 0.74114  0.62085  0.13551  Biso   1.000  C
  H8       1.0000 0.75709  0.52443  0.15293  Biso   1.000  H
  C5       1.0000 0.82906  0.70183  0.08416  Biso   1.000  C
  H9       1.0000 0.91253  0.66902  0.06053  Biso   1.000  H
  C6       1.0000 0.81046  0.82540  0.06305  Biso   1.000  C
  H10      1.0000 0.87984  0.88817  0.02352  Biso   1.000  H
  C7       1.0000 0.70268  0.86723  0.09252  Biso   1.000  C
  H11      1.0000 0.68691  0.96348  0.07528  Biso   1.000  H
  C8       1.0000 0.61480  0.78629  0.14359  Biso   1.000  C
  H12      1.0000 0.53063  0.81915  0.16657  Biso   1.000  H
